Version 4
SHEET 1 1876 736
WIRE -96 -416 -336 -416
WIRE 96 -416 -96 -416
WIRE 688 -416 96 -416
WIRE -96 -368 -96 -416
WIRE 96 -368 96 -416
WIRE 1808 -304 272 -304
WIRE 688 -256 688 -416
WIRE -96 -224 -96 -288
WIRE 96 -224 96 -288
WIRE 624 -208 416 -208
WIRE 0 -176 -32 -176
WIRE 32 -176 0 -176
WIRE 416 -128 416 -208
WIRE -96 -96 -96 -128
WIRE 0 -96 0 -176
WIRE 0 -96 -96 -96
WIRE 96 -80 96 -128
WIRE 272 -80 272 -304
WIRE 272 -80 96 -80
WIRE 352 -80 272 -80
WIRE 992 -16 912 -16
WIRE 1120 -16 1072 -16
WIRE 416 0 416 -32
WIRE 688 0 688 -160
WIRE 688 0 416 0
WIRE -704 32 -704 0
WIRE 688 80 688 0
WIRE 800 80 688 80
WIRE 912 80 912 -16
WIRE 912 80 880 80
WIRE 688 112 688 80
WIRE 1808 112 1808 -304
WIRE 912 128 912 80
WIRE 976 128 912 128
WIRE 1120 144 1120 -16
WIRE 1120 144 1040 144
WIRE 1200 144 1120 144
WIRE 1456 144 1232 144
WIRE -704 160 -704 112
WIRE -576 160 -576 112
WIRE 976 160 912 160
WIRE 1632 160 1520 160
WIRE 1744 160 1712 160
WIRE 1456 176 1408 176
WIRE 1008 192 1008 176
WIRE 688 208 688 192
WIRE 800 208 688 208
WIRE 912 208 912 160
WIRE 912 208 880 208
WIRE 944 208 912 208
WIRE 944 224 944 208
WIRE 1200 224 1200 144
WIRE 1408 224 1408 176
WIRE 1408 224 1200 224
WIRE -704 272 -704 240
WIRE -576 272 -576 240
WIRE -336 288 -336 -416
WIRE -96 288 -96 -96
WIRE 96 288 96 -80
WIRE 688 288 688 208
WIRE 800 288 688 288
WIRE 1232 320 1232 144
WIRE 160 336 144 336
WIRE 224 336 160 336
WIRE 304 336 224 336
WIRE 464 336 384 336
WIRE 512 336 464 336
WIRE 688 336 688 288
WIRE 688 336 592 336
WIRE 944 336 944 304
WIRE -96 432 -96 384
WIRE 0 432 -96 432
WIRE 96 432 96 384
WIRE 96 432 0 432
WIRE 224 432 224 400
WIRE 1232 432 1232 400
WIRE -336 448 -336 368
WIRE -176 448 -336 448
WIRE 464 448 464 336
WIRE 688 448 688 336
WIRE -336 480 -336 448
WIRE 0 480 0 432
WIRE 800 512 800 288
WIRE 1808 512 1808 208
WIRE 1808 512 800 512
WIRE -176 528 -176 448
WIRE -176 528 -272 528
WIRE -64 528 -176 528
WIRE 224 528 224 512
WIRE 464 576 464 528
WIRE 688 576 688 528
WIRE -336 608 -336 576
WIRE 0 608 0 576
WIRE -336 704 -336 688
WIRE 0 704 0 688
FLAG 688 576 0
FLAG 464 576 0
FLAG -576 272 0
FLAG -160 336 Vref
FLAG -576 112 Vref
FLAG -704 272 0
FLAG -704 0 Vreg
FLAG -336 -416 Vreg
FLAG 688 336 Vo
FLAG 224 528 0
FLAG -336 704 0
FLAG 0 704 0
FLAG 944 336 0
FLAG 1008 112 Vreg
FLAG 1008 192 0
FLAG 1232 432 0
SYMBOL pnp 624 -160 M180
SYMATTR InstName Q6
SYMATTR Value 2SAR542P
SYMBOL npn 352 -128 R0
SYMATTR InstName Q5
SYMATTR Value BC848B
SYMBOL npn -160 288 R0
WINDOW 3 23 57 Left 2
SYMATTR Value BC848B
SYMATTR InstName Q1
SYMBOL pnp 32 -128 M180
SYMATTR InstName Q4
SYMATTR Value BC858B
SYMBOL pnp -32 -128 R180
SYMATTR InstName Q3
SYMATTR Value BC858B
SYMBOL npn 160 288 M0
WINDOW 3 30 60 Left 2
SYMATTR Value BC848B
SYMATTR InstName Q2
SYMBOL res -112 -384 R0
SYMATTR InstName RE3
SYMATTR Value 0
SYMBOL res 80 -384 R0
SYMATTR InstName RE4
SYMATTR Value 0
SYMBOL npn -64 480 R0
WINDOW 3 23 57 Left 2
SYMATTR Value BC848B
SYMATTR InstName Q8
SYMBOL npn -272 480 M0
WINDOW 3 23 57 Left 2
SYMATTR Value BC848B
SYMATTR InstName Q7
SYMBOL res 608 320 R90
WINDOW 0 0 56 VBottom 2
WINDOW 3 32 56 VTop 2
SYMATTR InstName R1
SYMATTR Value 10k
SYMBOL res 480 544 R180
WINDOW 0 36 76 Left 2
WINDOW 3 36 40 Left 2
SYMATTR InstName R2
SYMATTR Value 10k
SYMBOL res -352 272 R0
SYMATTR InstName R3
SYMATTR Value 4k4
SYMBOL voltage -576 144 R0
WINDOW 123 0 0 Left 0
WINDOW 39 0 0 Left 0
SYMATTR InstName Vref
SYMATTR Value 2.5
SYMBOL voltage -704 144 R0
WINDOW 123 0 0 Left 0
WINDOW 39 0 0 Left 0
SYMATTR InstName Vreg
SYMATTR Value 9.5
SYMBOL voltage -704 16 R0
WINDOW 123 0 0 Left 0
WINDOW 39 0 0 Left 0
WINDOW 3 24 44 Left 2
SYMATTR Value 0
SYMATTR InstName Vripple
SYMBOL cap 208 336 R0
SYMATTR InstName C1
SYMATTR Value 1
SYMBOL voltage 224 416 R0
WINDOW 123 24 124 Left 2
WINDOW 39 0 0 Left 0
WINDOW 3 12 101 Left 2
SYMATTR Value2 AC 1
SYMATTR Value SINE(0 1m 1k)
SYMATTR InstName V1
SYMBOL ind 400 320 R90
WINDOW 0 5 56 VBottom 2
WINDOW 3 32 56 VTop 2
SYMATTR InstName L1
SYMATTR Value 1
SYMBOL res -352 592 R0
SYMATTR InstName RE7
SYMATTR Value 0
SYMBOL res -16 592 R0
SYMATTR InstName RE8
SYMATTR Value 0
SYMBOL OpAmps\\OP07 1008 80 R0
SYMATTR InstName U1
SYMBOL res 672 96 R0
SYMATTR InstName RS
SYMATTR Value 3
SYMBOL res 896 64 R90
WINDOW 0 0 56 VBottom 2
WINDOW 3 32 56 VTop 2
SYMATTR InstName R4
SYMATTR Value 10k
SYMBOL res 896 192 R90
WINDOW 0 0 56 VBottom 2
WINDOW 3 32 56 VTop 2
SYMATTR InstName R5
SYMATTR Value 10k
SYMBOL res 928 208 R0
SYMATTR InstName R9
SYMATTR Value 50k
SYMBOL res 1088 -32 R90
WINDOW 0 0 56 VBottom 2
WINDOW 3 32 56 VTop 2
SYMATTR InstName R10
SYMATTR Value 50k
SYMBOL OpAmps\\OP07 1488 96 R0
SYMATTR InstName U2
SYMBOL res 1728 144 R90
WINDOW 0 0 56 VBottom 2
WINDOW 3 32 56 VTop 2
SYMATTR InstName R12
SYMATTR Value 4k7
SYMBOL npn 1744 112 R0
WINDOW 3 23 57 Left 2
SYMATTR Value BC848B
SYMATTR InstName Q9
SYMBOL voltage 1232 304 R0
SYMATTR InstName V2
SYMATTR Value 1
SYMBOL res 672 432 R0
SYMATTR InstName RL
SYMATTR Value {RL}
TEXT -624 -200 Left 2 !.op
TEXT -632 -136 Left 2 !.step param RL 0.01 10 0.1
